RedeDSS/Rede_CAI_teste_sem_trafos_VLN.Txt

SYMMETRICAL COMPONENT VOLTAGES BY BUS (for 3-phase buses)

Bus   Mag:   V1 (kV)    p.u.     V2 (kV)   %V2/V1    V0 (kV)    %V0/V1

3326      50.1     0.9862    0.01543    0.03079 3.305E-009 6.596E-009
2645     7.849     0.9851   0.002746    0.03499 0.0003431  0.004371
3323     7.849     0.9851   0.002743    0.03495 0.0003383   0.00431
2221     7.848      0.985   0.002756    0.03512 0.0003499  0.004459
3312     7.821     0.9816   0.003757    0.04804   0.00137   0.01752
3324     7.821     0.9816   0.003757    0.04804   0.00137   0.01752
927      7.821     0.9816   0.003758    0.04806   0.00137   0.01752
1972     7.821     0.9816   0.003759    0.04807  0.001374   0.01757
13        7.82     0.9815   0.003777    0.04829  0.001393   0.01781
436       7.82     0.9815    0.00378    0.04833  0.001393   0.01781
1100      7.82     0.9815   0.003757    0.04804  0.001368   0.01749
3247      7.85     0.9852   0.002532    0.03225 0.0001506  0.001919
3325      7.85     0.9852   0.002532    0.03225 0.0001506  0.001919
2922     7.849     0.9852   0.002537    0.03233 0.0001557  0.001984
2648     7.848     0.9851   0.002748    0.03501 0.0003466  0.004416
2223     7.848      0.985   0.002766    0.03525 0.0003588  0.004572
928      7.821     0.9816   0.003762     0.0481  0.001371   0.01753
1973     7.821     0.9816   0.003761     0.0481  0.001379   0.01764
1101      7.82     0.9814   0.003757    0.04805  0.001366   0.01747
3248      7.85     0.9852   0.002532    0.03225 0.0001506  0.001919
2924     7.849     0.9851   0.002543     0.0324 0.0001611  0.002053
2647     7.848      0.985   0.002755    0.03511 0.0003593  0.004578
2222     7.846     0.9847   0.002802    0.03572 0.0003918  0.004994
3311     7.821     0.9816   0.003757    0.04804   0.00137   0.01752
929      7.821     0.9816   0.003762    0.04811  0.001371   0.01753
1975      7.82     0.9815   0.003765    0.04814  0.001386   0.01773
12       7.819     0.9813   0.003832    0.04901  0.001455   0.01861
434      7.818     0.9812   0.003844    0.04917  0.001456   0.01863
1103     7.819     0.9813   0.003758    0.04806  0.001363   0.01743
3249      7.85     0.9852   0.002532    0.03225 0.0001506  0.001919
2923     7.847     0.9848   0.002565    0.03269 0.0001815  0.002313
2646     7.848      0.985   0.002757    0.03513  0.000362  0.004613
2227     7.845     0.9847   0.002806    0.03577 0.0003951  0.005036
931       7.82     0.9816   0.003768    0.04818  0.001371   0.01754
1974     7.819     0.9814   0.003777     0.0483  0.001412   0.01806
1102     7.815     0.9809   0.003759     0.0481  0.001351   0.01729
3269      7.85     0.9852   0.002532    0.03225 0.0001506  0.001919
2926     7.846     0.9848   0.002568    0.03273 0.0001842  0.002348
2649     7.848      0.985   0.002759    0.03516 0.0003657   0.00466
2226     7.843     0.9844   0.002848    0.03631 0.0004345   0.00554
3309     7.821     0.9816   0.003757    0.04804   0.00137   0.01752
930       7.82     0.9814   0.003788    0.04844  0.001374   0.01757
1978     7.819     0.9814   0.003778    0.04831  0.001414   0.01808
9        7.817     0.9811   0.003887    0.04973  0.001518   0.01942
432      7.815     0.9809   0.003908       0.05   0.00152   0.01945
1106     7.814     0.9808   0.003759    0.04811  0.001349   0.01726
2925     7.845     0.9847   0.002578    0.03286 0.0001935  0.002467
2835     7.848      0.985   0.002759    0.03516 0.0003659  0.004663
2225     7.841     0.9841   0.002897    0.03695 0.0004811  0.006136
934      7.819     0.9814   0.003791    0.04849  0.001374   0.01758
1977     7.818     0.9813   0.003792     0.0485  0.001443   0.01846
1105      7.81     0.9803   0.003761    0.04815  0.001336    0.0171
3267      7.85     0.9852   0.002532    0.03225 0.0001506  0.001919
3029     7.845     0.9847   0.002578    0.03286 0.0001938   0.00247
2224      7.84      0.984   0.002914    0.03717  0.000498  0.006352
3306     7.821     0.9816   0.003757    0.04804   0.00137   0.01752
933      7.818     0.9813   0.003816     0.0488  0.001378   0.01763
1976     7.817     0.9811   0.003809    0.04872  0.001478   0.01891
7        7.815     0.9808   0.003973    0.05084  0.001615   0.02066
431      7.812     0.9805   0.004006    0.05128  0.001619   0.02072
1104     7.806     0.9797   0.003763    0.04821  0.001321   0.01693
3266      7.85     0.9852   0.002532    0.03225 0.0001506  0.001919
3264      7.85     0.9852   0.002532    0.03225 0.0001506  0.001919
2833     7.848      0.985   0.002759    0.03516 0.0003661  0.004665
2228     7.839     0.9838   0.002936    0.03746 0.0005195  0.006627
932      7.817     0.9812   0.003843    0.04916  0.001383    0.0177
1980     7.817     0.9811   0.003815     0.0488   0.00149   0.01906
1108     7.804     0.9795   0.003764    0.04823  0.001316   0.01686
3265      7.85     0.9852   0.002532    0.03225 0.0001506  0.001919
3034     7.845     0.9847   0.002578    0.03286 0.0001941  0.002474
2832     7.848     0.9849    0.00276    0.03517 0.0003684  0.004695
2823     7.848      0.985   0.002759    0.03516 0.0003661  0.004665
2285     7.839     0.9838   0.002937    0.03747 0.0005204  0.006639
3304     7.821     0.9816   0.003757    0.04804   0.00137   0.01752
936      7.817     0.9811   0.003853    0.04928  0.001385   0.01772
1979     7.816      0.981   0.003828    0.04898  0.001516    0.0194
5        7.812     0.9805    0.00407    0.05211  0.001724   0.02207
428      7.808       0.98   0.004118    0.05274  0.001731   0.02217
1107       7.8      0.979   0.003766    0.04827  0.001305   0.01673
3277      7.85     0.9852   0.002532    0.03225 0.0001506  0.001919
3033     7.845     0.9847   0.002578    0.03286 0.0001941  0.002474
3031     7.845     0.9846   0.002582    0.03291 0.0001999  0.002549
2831     7.847     0.9849   0.002761    0.03519 0.0003718  0.004738
3303     7.821     0.9816   0.003757    0.04804   0.00137   0.01752
935      7.816      0.981   0.003873    0.04956   0.00139   0.01778
1981     7.815     0.9809   0.003836    0.04908  0.001533   0.01962
4        7.811     0.9803   0.004105    0.05256  0.001763   0.02257
425      7.807     0.9798   0.004157    0.05326  0.001771   0.02269
1109     7.798     0.9788   0.003767     0.0483  0.001299   0.01665
3279      7.85     0.9852   0.002532    0.03225 0.0001506  0.001919
3032     7.845     0.9847   0.002578    0.03286 0.0001941  0.002474
3017     7.845     0.9846   0.002582    0.03291 0.0001999  0.002549
3016     7.845     0.9846   0.002582    0.03291 0.0002002  0.002552
2830     7.847     0.9849   0.002762     0.0352 0.0003751   0.00478
2292     7.839     0.9838   0.002938    0.03748 0.0005208  0.006645
938      7.816      0.981   0.003883    0.04968  0.001392   0.01781
1998     7.815     0.9809   0.003836    0.04909  0.001533   0.01962
1160     7.798     0.9788   0.003767     0.0483  0.001298   0.01665
3278      7.85     0.9852   0.002532    0.03225 0.0001506  0.001919
3257      7.85     0.9852   0.002532    0.03225 0.0001506  0.001919
3015     7.845     0.9846   0.002587    0.03297 0.0002071  0.002641
2829     7.847     0.9849   0.002765    0.03523 0.0003811  0.004857
2291     7.838     0.9838   0.002943    0.03754 0.0005258  0.006709
2286     7.839     0.9838   0.002938    0.03748 0.0005208  0.006645
1016     7.816      0.981   0.003883    0.04968  0.001392   0.01781
14        7.81     0.9802   0.004144    0.05306  0.001806   0.02313
426      7.805     0.9796   0.004207    0.05391  0.001821   0.02333
3283      7.85     0.9852   0.002532    0.03225 0.0001506  0.001919
3256      7.85     0.9852   0.002532    0.03225 0.0001506  0.001919
3014     7.844     0.9845   0.002591    0.03303 0.0002144  0.002733
3013     7.844     0.9846   0.002586    0.03297 0.0002071  0.002641
2828     7.847     0.9849   0.002766    0.03525 0.0003846  0.004901
2290     7.837     0.9837   0.002961    0.03779 0.0005456  0.006961
2283     7.839     0.9838   0.002938    0.03748 0.0005208  0.006645
2282     7.839     0.9838   0.002938    0.03748 0.0005208  0.006645
2000     7.815     0.9809   0.003836    0.04909  0.001534   0.01963
1158     7.798     0.9788   0.003767     0.0483  0.001298   0.01665
3282      7.85     0.9852   0.002532    0.03225 0.0001506  0.001919
3281      7.85     0.9852   0.002532    0.03225 0.0001506  0.001919
3263      7.85     0.9852   0.002532    0.03225 0.0001506  0.001919
3255      7.85     0.9852   0.002532    0.03225 0.0001506  0.001919
3011     7.844     0.9845   0.002591    0.03303 0.0002144  0.002733
3009     7.844     0.9845   0.002592    0.03305 0.0002162  0.002757
3012     7.844     0.9846   0.002586    0.03297 0.0002071  0.002641
2827     7.847     0.9849   0.002767    0.03526  0.000387  0.004931
2294     7.837     0.9836    0.00297     0.0379 0.0005544  0.007074
1014     7.816      0.981   0.003883    0.04968  0.001392   0.01782
1999     7.815     0.9809   0.003836    0.04909  0.001534   0.01963
2003     7.815     0.9809   0.003838    0.04911  0.001539   0.01969
40        7.81     0.9802   0.004144    0.05306  0.001807   0.02314
30        7.81     0.9802   0.004144    0.05306  0.001806   0.02313
572      7.804     0.9795   0.004224    0.05413  0.001849    0.0237
540      7.805     0.9796   0.004207    0.05391  0.001821   0.02333
1157     7.798     0.9788   0.003767     0.0483  0.001298   0.01665
1162     7.798     0.9787   0.003767    0.04831  0.001297   0.01663
3280      7.85     0.9852   0.002532    0.03225 0.0001506  0.001919
3262      7.85     0.9852   0.002532    0.03225 0.0001506  0.001919
3010     7.844     0.9845   0.002591    0.03303 0.0002144  0.002733
3008     7.844     0.9845   0.002595    0.03309 0.0002208  0.002815
2826     7.847     0.9849   0.002768    0.03527 0.0003892   0.00496
2293     7.837     0.9836    0.00297     0.0379 0.0005544  0.007074
2289     7.836     0.9836   0.002982    0.03805 0.0005669  0.007234
1013     7.815     0.9809   0.003889    0.04976  0.001394   0.01783
1010     7.816      0.981   0.003883    0.04968  0.001392   0.01782
2005     7.815     0.9809   0.003839    0.04912  0.001542   0.01973
39        7.81     0.9802   0.004149    0.05313  0.001817   0.02326
31        7.81     0.9802   0.004144    0.05306  0.001806   0.02313
580      7.804     0.9794   0.004241    0.05435  0.001877   0.02405
539      7.805     0.9796   0.004207    0.05391  0.001821   0.02333
1156     7.798     0.9788   0.003767     0.0483  0.001298   0.01665
1161     7.798     0.9787   0.003767    0.04831  0.001297   0.01663
1155     7.797     0.9786   0.003768    0.04832  0.001291   0.01656
3253      7.85     0.9852   0.002532    0.03225 0.0001506  0.001919
2999     7.844     0.9845   0.002591    0.03303 0.0002144  0.002733
2825     7.847     0.9849   0.002769    0.03528 0.0003924     0.005
2288     7.836     0.9834   0.002998    0.03826 0.0005843  0.007456
1012     7.815     0.9809   0.003897    0.04986  0.001396   0.01786
1009     7.815     0.9809   0.003889    0.04976  0.001394   0.01783
2004     7.815     0.9809   0.003839    0.04912  0.001542   0.01973
2002     7.815     0.9808   0.003841    0.04915   0.00155   0.01983
38        7.81     0.9802   0.004153    0.05318  0.001824   0.02335
32        7.81     0.9802   0.004144    0.05306  0.001806   0.02313
579      7.803     0.9793   0.004263    0.05463  0.001914   0.02452
538      7.805     0.9796   0.004207    0.05391  0.001821   0.02333
1170     7.796     0.9784   0.003768    0.04834  0.001286   0.01649
3252      7.85     0.9852   0.002532    0.03225 0.0001506  0.001919
2998     7.844     0.9845   0.002591    0.03303 0.0002144  0.002733
3004     7.843     0.9844     0.0026    0.03315 0.0002288  0.002917
2824     7.847     0.9849    0.00277     0.0353 0.0003952  0.005037
2296     7.835     0.9834   0.003011    0.03843 0.0005978   0.00763
1011     7.815     0.9808   0.003905    0.04997  0.001398   0.01789
2007     7.815     0.9808   0.003844    0.04919  0.001558   0.01994
37       7.809     0.9802   0.004154    0.05319  0.001825   0.02336
33        7.81     0.9802   0.004144    0.05306  0.001806   0.02313
618      7.803     0.9793   0.004264    0.05464  0.001915   0.02454
1169     7.796     0.9784   0.003768    0.04834  0.001286   0.01649
1167     7.795     0.9784   0.003768    0.04834  0.001285   0.01649
3251      7.85     0.9852   0.002532    0.03225 0.0001506  0.001919
2997     7.844     0.9845   0.002591    0.03303 0.0002144  0.002733
3003     7.843     0.9844   0.002606    0.03323 0.0002376   0.00303
2805     7.847     0.9849   0.002771    0.03531 0.0003979  0.005071
2295     7.835     0.9834   0.003011    0.03843 0.0005978   0.00763
2287     7.834     0.9833   0.003023    0.03859 0.0006109  0.007798
1008     7.815     0.9808   0.003911    0.05005    0.0014   0.01791
2006     7.815     0.9808   0.003844    0.04919  0.001558   0.01994
2009     7.815     0.9808   0.003846    0.04921  0.001564   0.02002
36       7.809     0.9801   0.004164    0.05333  0.001844   0.02361
617      7.803     0.9793   0.004264    0.05464  0.001915   0.02454
571      7.802     0.9793   0.004275    0.05479  0.001934   0.02478
3276      7.85     0.9852   0.002532    0.03225 0.0001506  0.001919
2996     7.844     0.9845   0.002591    0.03303 0.0002144  0.002733
3002     7.842     0.9843   0.002612    0.03331 0.0002481  0.003164
2989     7.843     0.9843   0.002606    0.03323 0.0002376   0.00303
2806     7.847     0.9848   0.002772    0.03532 0.0004005  0.005104
2302     7.834     0.9832   0.003034    0.03873 0.0006222  0.007942
1007     7.814     0.9808    0.00392    0.05017  0.001403   0.01795
1006     7.814     0.9808   0.003912    0.05006    0.0014   0.01791
2008     7.815     0.9808   0.003846    0.04921  0.001564   0.02002
2011     7.814     0.9808   0.003847    0.04922  0.001567   0.02005
35       7.809     0.9801   0.004175    0.05346  0.001863   0.02386
...
